LTspice 24.0.12 for Windows
Circuit: * C:\Users\bengi\Desktop\fall\EEE 419\EEE 419 Power Electronics Project\Design Files\FlybackConverter.asc
Start Time: Tue Dec 17 20:36:09 2024
solver = Alternate
Maximum thread count: 16
tnom = 27
temp = 27
method = modified trap
c3: Increased Cpar to 1e-12
U1:v7: Missing value, assumed 0V @ DC
Direct Newton iteration failed to find .op point.  (Use ".option noopiter" to skip.)
Starting Gmin stepping
Gmin = 10
Gmin = 1.07374
Gmin = 0.115292
Gmin = 0.0123794
Gmin = 0.00132923
Gmin = 0.000142725
Gmin = 1.5325e-05
Gmin = 1.6455e-06
Gmin = 1.76685e-07
Gmin = 1.89714e-08
Gmin = 2.03704e-09
Gmin = 2.18725e-10
Gmin = 2.34854e-11
Gmin = 2.52173e-12
Gmin = 2.70769e-13
Gmin = 0
Gmin stepping succeeded in finding the operating point.

Ignoring empty pin current: Ix(u3:11)
Ignoring empty pin current: Ix(u3:11)
Heightened Def Con from 4.17344e-06 +++++++++++++++++++++++++++to 4.17744e-06
Heightened Def Con from 4.17744e-06 ++++++++++++++++++++++++to 4.17745e-06
Heightened Def Con from 4.17745e-06 ++++++++++++++++++++++++to 4.18445e-06
Heightened Def Con from 4.18445e-06 ++++++++++++++++++++++++to 4.18745e-06
Heightened Def Con from 4.18745e-06 ++++++++++++++++++++++++to 4.19045e-06
Heightened Def Con from 4.19045e-06 ++++++++++++++++++++++++to 4.19345e-06
Heightened Def Con from 4.19345e-06 ++++++++++++++++++++++++to 4.19645e-06
Heightened Def Con from 4.19645e-06 ++++++++++++++++++++++++to 4.19945e-06
Heightened Def Con from 4.19945e-06 +++++++++++++++++++++++to 4.20047e-06
Heightened Def Con from 4.20047e-06 ++++++++++++++++++++++to 4.20347e-06
Total elapsed time: 68.076 seconds.

