Circuit: * C:\Users\bengi\Desktop\fall\EEE 419\LAB Files\LAB 1\BuckConverter.asc

Direct Newton iteration for .op point succeeded.

Date: Fri Nov 22 10:40:12 2024
Total elapsed time: 4.251 seconds.

tnom = 27
temp = 27
method = modified trap
totiter = 2281273
traniter = 2281241
tranpoints = 616386
accept = 440408
rejected = 175978
matrix size = 23
fillins = 1
solver = Normal
Avg thread counts: 1.0/1.0/1.0/1.0
Matrix Compiler1:      64 opcodes  0.2/[0.2]/0.2
Matrix Compiler2: 1.76 KB object code size  0.2/0.3/[0.1]

