LTspice 24.0.12 for Windows
Circuit: * C:\Users\bengi\Desktop\fall\EEE 419\LAB Files\LAB 2\IsolatedHalfBridge.asc
Start Time: Tue Dec  3 23:35:42 2024
Warning: Multiple definitions of model "2scr375p" Type: BJT
Warning: Multiple definitions of model "bc857b" Type: BJT
Warning: Multiple definitions of model "bc847c" Type: BJT
Warning: Multiple definitions of model "bc847b" Type: BJT
solver = Alternate
Maximum thread count: 16
tnom = 27
temp = 27
method = modified trap
c5: Increased Cpar to 1e-11
c1: Increased Cpar to 1.5e-10
c2: Increased Cpar to 1.5e-10
c3: Increased Cpar to 1e-10
WARNING: Less than two connections to node u2:mrn.  This node is used by a:u2:r.
WARNING: Less than two connections to node u2:q2p.  This node is used by a:u2:ff2.
WARNING: Less than two connections to node u2:q3p.  This node is used by a:u2:ff3.
WARNING: Less than two connections to node nc_02.  This node is used by r:u2:out4:out.
WARNING: Less than two connections to node nc_03.  This node is used by r:u2:out5:out.
WARNING: Less than two connections to node nc_04.  This node is used by r:u2:out6:out.
WARNING: Less than two connections to node nc_05.  This node is used by r:u2:out7:out.
WARNING: Less than two connections to node nc_06.  This node is used by r:u2:out8:out.
WARNING: Less than two connections to node nc_07.  This node is used by r:u2:out9:out.
WARNING: Less than two connections to node nc_08.  This node is used by r:u2:out10:out.
WARNING: Less than two connections to node nc_09.  This node is used by r:u2:out11:out.
WARNING: Less than two connections to node nc_10.  This node is used by r:u2:out12:out.
WARNING: Less than two connections to node nc_11.  This node is used by r:u2:out13:out.
WARNING: Less than two connections to node nc_12.  This node is used by r:u2:out14:out.
Direct Newton iteration for .op point succeeded.
Ignoring empty pin current: Ix(u2:vdd)
Ignoring empty pin current: Ix(u2:vdd)
