Circuit: * C:\Users\bengi\Desktop\fall\EEE 419\HW Files\HW 2\BuckConverter.asc

Limiting rise time of source v1 to 2.85e-08
Limiting fall time of source v1 to 2.85e-08
WARNING: Node N002 is floating.

Direct Newton iteration for .op point succeeded.

Date: Sat Oct 26 19:05:06 2024
Total elapsed time: 0.203 seconds.

tnom = 27
temp = 27
method = modified trap
totiter = 158273
traniter = 158268
tranpoints = 55897
accept = 42443
rejected = 13454
matrix size = 10
fillins = 0
solver = Normal
Avg thread counts: 1.0/1.1/1.1/1.0
Matrix Compiler1:      20 opcodes  0.1/[0.1]/0.1
Matrix Compiler2: 612 bytes object code size  0.1/0.1/[0.1]

