Circuit: * C:\Users\bengi\Desktop\fall\EEE 419\HW Files\HW 1\DC_PowerSupply.asc

Direct Newton iteration failed to find .op point.  (Use ".option noopiter" to skip.)
Starting Gmin stepping
Gmin = 10
Gmin = 1.07374
Gmin = 0.115292
Gmin = 0.0123794
Gmin = 0.00132923
Gmin = 0.000142725
Gmin = 1.5325e-05
Gmin = 1.6455e-06
Gmin = 1.76685e-07
Gmin = 1.89714e-08
Gmin = 2.03704e-09
Gmin = 2.18725e-10
Gmin = 2.34854e-11
Gmin = 2.52173e-12
Gmin = 2.70769e-13
Gmin = 0
Gmin stepping succeeded in finding the operating point.


Date: Wed Sep 25 20:29:41 2024
Total elapsed time: 7.505 seconds.

tnom = 27
temp = 27
method = modified trap
totiter = 2888573
traniter = 2888175
tranpoints = 1189691
accept = 762253
rejected = 427438
matrix size = 26
fillins = 8
solver = Normal
Avg thread counts: 1.0/1.0/1.0/1.0
Matrix Compiler1:     121 opcodes  0.4/[0.3]/0.3
Matrix Compiler2: 2.32 KB object code size  0.2/0.3/[0.2]

